/*--------------------------------*- C++ -*----------------------------------*\
| =========                 |                                                 |
| \\      /  F ield         | OpenFOAM: The Open Source CFD Toolbox           |
|  \\    /   O peration     | Version:  v2006                                 |
|   \\  /    A nd           | Website:  www.openfoam.com                      |
|    \\/     M anipulation  |                                                 |
\*---------------------------------------------------------------------------*/
FoamFile
{
    version     2.0;
    format      ascii;
    class       dictionary;
    location    "system";
    object      controlDict;
}
// * * * * * * * * * * * * * * * * * * * * * * * * * * * * * * * * * * * * * //

application     blockCoupledSenseFoam;

startFrom       startTime;

startTime       0;

stopAt          endTime;

endTime         900000;

deltaT          1;

writeControl    timeStep;

writeInterval   10;

purgeWrite      10;

writeFormat     ascii;

writePrecision  6;

writeCompression off;

timeFormat      general;

timePrecision   6;

runTimeModifiable true;

functions
{
    //#includeFunc "stressComponents"
    //#includeFunc "pressureCoefficient"
    //#includeFunc "sample"
    //#includeFunc "sampleCp"
    //#includeFunc "writeCellCentres"
    //#includeFunc "wallShearStress"
}

InfoSwitches
{
    allowSystemOperations true;
}

// ************************************************************************* //
