/*--------------------------------*- C++ -*----------------------------------*\
| =========                 |                                                 |
| \\      /  F ield         | OpenFOAM: The Open Source CFD Toolbox           |
|  \\    /   O peration     | Version:  v2006                                 |
|   \\  /    A nd           | Website:  www.openfoam.com                      |
|    \\/     M anipulation  |                                                 |
\*---------------------------------------------------------------------------*/
FoamFile
{
    version     2.0;
    format      ascii;
    class       volScalarField;
    object      p;
}
// * * * * * * * * * * * * * * * * * * * * * * * * * * * * * * * * * * * * * //

dimensions      [1 -1 -2 0 0 0 0];

internalField   uniform 291534;

boundaryField
{
    INLET
    {
        type fixedValue;
        value uniform 662686;//658993;
}
    

    OUTLET
        {
            type    fixedValue;
            value uniform 285640;//284049;
        }

    WALL
    {
        type            zeroGradient;
    }

    SYMMETRY
    {
        type            zeroGradient;
    }

}

// ************************************************************************* //