/*--------------------------------*- C++ -*----------------------------------*\
| =========                 |                                                 |
| \\      /  F ield         | OpenFOAM: The Open Source CFD Toolbox           |
|  \\    /   O peration     | Version:  v2006                                 |
|   \\  /    A nd           | Website:  www.openfoam.com                      |
|    \\/     M anipulation  |                                                 |
\*---------------------------------------------------------------------------*/
FoamFile
{
    version     2.0;
    format      ascii;
    class       volVectorField;
    object      Uc;
}
// * * * * * * * * * * * * * * * * * * * * * * * * * * * * * * * * * * * * * //

dimensions      [0 1 -1 0 0 0 0];

internalField   uniform (0.1 0 0);

boundaryField
{
    INLET 
    { 
        type    zeroGradient;
        //type       directionMixed; 
        //refValue   uniform (0 0 0); 
        //refGradient   uniform (0 0 0); 
        //valueFraction  uniform (0 0 0 1 0 1); 
        //value     uniform (0 0 0); 
    } 
    
    OUTLET
    { 
        type    inletOutlet;
        //tangentialVelocity uniform 0;
        inletValue   uniform (0 0 0);
        //type       directionMixed; 
        //refValue   uniform (0 0 0); 
        //refGradient   uniform (0 0 0); 
        //valueFraction  uniform (0 0 0 1 0 1); 
        //value     uniform (0 0 0); 
    } 
    
    top{
        type noSlip;
        //value uniform (0 0 0);
    }

    bottom
    {
        type            symmetryPlane;
    }

    frontAndBack
    {
        type            empty;
    }
}

// ************************************************************************* //
