/*--------------------------------*- C++ -*----------------------------------*\
| =========                 |                                                 |
| \\      /  F ield         | OpenFOAM: The Open Source CFD Toolbox           |
|  \\    /   O peration     | Version:  v2006                                 |
|   \\  /    A nd           | Website:  www.openfoam.com                      |
|    \\/     M anipulation  |                                                 |
\*---------------------------------------------------------------------------*/
FoamFile
{
    version     2.0;
    format      ascii;
    class       dictionary;
    location    "system";
    object      controlDict;
}
// * * * * * * * * * * * * * * * * * * * * * * * * * * * * * * * * * * * * * //

application     simpleFoam;

startFrom       startTime;

startTime       0;

stopAt          endTime;

endTime         900000;

deltaT          1;

writeControl    timeStep;

writeInterval   100;

purgeWrite      5;

writeFormat     ascii;

writePrecision  6;

writeCompression off;

timeFormat      general;

timePrecision   6;

runTimeModifiable true;

functions
{
    // Patch average at specified patch
    massflowInlet
    {
        type                    surfaceFieldValue;
        libs                    ("libfieldFunctionObjects.so");

        log                     false;
        writeFields             false;

        regionType              patch;
        name                    INLET;

        operation               weightedAreaIntegrate;
        postOperation           mag;
        weightField             rho;

        fields
        (
            Ut
        );
    }

    // Patch average at specified patch
    massflowOutlet
    {
        type                    surfaceFieldValue;
        libs                    ("libfieldFunctionObjects.so");

        log                     false;
        writeFields             false;

        regionType              patch;
        name                    OUTLET;

        operation               weightedAreaIntegrate;
        postOperation           mag;
        weightField             rho;

        fields
        (
            Ut
        );
    }
}

// ************************************************************************* //
